*************Notes***************

* You may use LTspice help.

* Any question mark (?) should be replaced by a word or a numeric value.

* Use nmos_part1_i where i refers to the deliverable you
* are working on.

*---------------------------------*
* Part 1.1
.MODEL nmos_part1_1 NMOS [LEVEL=1 KP=183.67u VTO=0.4]

*---------------------------------*

* Part1.2
* add a line here (same as Part 1.1 except for one more parameter)
* Don't forget to change the model name to nmos_part1_2
.MODEL nmos_part1_2 NMOS [LEVEL=1 KP=1.8367e-4 VTO=0.4 LAMBDA=0.1 ]
*---------------------------------*

* Part 1.3
*.add a line here (same as Part 1.2 except for one more parameter)
.MODEL nmos_part1_3 NMOS [LEVEL=2 KP=1.8367e-4 VTO=0.4 LAMBDA=0.1 VMAX=3.34e5 ]
*---------------------------------*

* Part 1.6
* add a line here (same as Part 1.3 but you have to add CJ and CJSW. Take care of the units)
.MODEL nmos_part1_6 NMOS [LEVEL=1 KP=1.8367e-4 VTO=0.4 LAMBDA=0.1 CJ=1m CJSW=100p]
